BUF
  CCTOOLS-0919241035

 62 66  0  0  1  0  0  0  0  0999 V2000
    1.6790   -1.1370   -1.3340 C   0  0  0  0  0
    1.0410   -0.8830    0.0330 C   0  0  0  0  0
    0.0220   -1.9670    0.3900 C   0  0  0  0  0
   -1.2380   -1.8260   -0.4590 C   0  0  0  0  0
   -1.8870   -0.4720   -0.1520 C   0  0  0  0  0
   -3.1930   -0.3350   -0.9370 C   0  0  0  0  0
   -2.9010   -0.4550   -2.4340 C   0  0  0  0  0
   -4.1610   -1.4420   -0.5170 C   0  0  0  0  0
   -4.4630   -1.3170    0.9780 C   0  0  0  0  0
   -5.0940    0.0480    1.2590 C   0  0  0  0  0
   -6.3080    0.1740    0.5150 O   0  0  0  0  0
   -4.1220    1.1530    0.8420 C   0  0  0  0  0
   -3.8230    1.0290   -0.6500 C   0  0  0  0  0
   -2.8540    2.1340   -1.0720 C   0  0  0  0  0
   -1.5490    1.9970   -0.2840 C   0  0  0  0  0
   -0.9190    0.6340   -0.5710 C   0  0  0  0  0
    0.4250    0.5240    0.1210 C   0  0  0  0  0
    1.3220    1.4860   -0.4390 O   0  0  0  0  0
    0.3290    0.7510    1.6410 C   0  0  0  0  0
    1.6540    0.1610    2.1780 C   0  0  0  0  0
    2.0980   -0.8740    1.1700 C   0  0  0  0  0
    3.4430   -0.4710    0.6230 C   0  0  0  0  0
    4.3060   -1.4440    0.0900 C   0  0  0  0  0
    5.5180   -1.0560   -0.4000 C   0  0  0  0  0
    5.8680    0.3060   -0.3560 C   0  0  0  0  0
    6.9480    0.6720   -0.7900 O   0  0  0  0  0
    5.0130    1.2030    0.1620 O   0  0  0  0  0
    3.8190    0.8250    0.6380 C   0  0  0  0  0
    2.1590   -2.1150   -1.3350 H   0  0  0  0  0
    0.9090   -1.1100   -2.1050 H   0  0  0  0  0
    2.4230   -0.3660   -1.5370 H   0  0  0  0  0
    0.4640   -2.9480    0.2150 H   0  0  0  0  0
   -0.2440   -1.8770    1.4440 H   0  0  0  0  0
   -0.9750   -1.8740   -1.5160 H   0  0  0  0  0
   -1.9340   -2.6310   -0.2190 H   0  0  0  0  0
   -2.0820   -0.4030    0.9190 H   0  0  0  0  0
   -2.4530   -1.4270   -2.6400 H   0  0  0  0  0
   -3.8300   -0.3570   -2.9950 H   0  0  0  0  0
   -2.2110    0.3340   -2.7340 H   0  0  0  0  0
   -5.0880   -1.3480   -1.0840 H   0  0  0  0  0
   -3.7100   -2.4140   -0.7170 H   0  0  0  0  0
   -5.1540   -2.1060    1.2760 H   0  0  0  0  0
   -3.5360   -1.4130    1.5440 H   0  0  0  0  0
   -5.3100    0.1360    2.3240 H   0  0  0  0  0
   -6.9710   -0.4970    0.7280 H   0  0  0  0  0
   -4.5710    2.1260    1.0430 H   0  0  0  0  0
   -3.1960    1.0560    1.4080 H   0  0  0  0  0
   -4.7500    1.1240   -1.2150 H   0  0  0  0  0
   -2.6450    2.0470   -2.1380 H   0  0  0  0  0
   -3.3010    3.1070   -0.8670 H   0  0  0  0  0
   -0.8580    2.7850   -0.5860 H   0  0  0  0  0
   -1.7570    2.0860    0.7820 H   0  0  0  0  0
   -0.7330    0.5450   -1.6420 H   0  0  0  0  0
    1.0190    2.4010   -0.3570 H   0  0  0  0  0
    0.2640    1.8150    1.8680 H   0  0  0  0  0
   -0.5250    0.2150    2.0560 H   0  0  0  0  0
    2.3920    0.9530    2.3040 H   0  0  0  0  0
    1.4810   -0.3430    3.1280 H   0  0  0  0  0
    2.1610   -1.8590    1.6310 H   0  0  0  0  0
    4.0130   -2.4840    0.0690 H   0  0  0  0  0
    6.2000   -1.7840   -0.8140 H   0  0  0  0  0
    3.1490    1.5680    1.0450 H   0  0  0  0  0
  1 29  1  0  0  0
  1 30  1  0  0  0
  1 31  1  0  0  0
  2  1  1  0  0  0
  2 21  1  0  0  0
  3  2  1  0  0  0
  3 32  1  0  0  0
  3 33  1  0  0  0
  4  3  1  0  0  0
  4 34  1  0  0  0
  4 35  1  0  0  0
  5 16  1  0  0  0
  5  4  1  0  0  0
  5 36  1  0  0  0
  6  5  1  0  0  0
  7  6  1  0  0  0
  7 37  1  0  0  0
  7 38  1  0  0  0
  7 39  1  0  0  0
  8  6  1  0  0  0
  8  9  1  0  0  0
  8 40  1  0  0  0
  8 41  1  0  0  0
  9 42  1  0  0  0
  9 43  1  0  0  0
 10  9  1  0  0  0
 10 44  1  0  0  0
 11 10  1  0  0  0
 11 45  1  0  0  0
 12 10  1  0  0  0
 12 13  1  0  0  0
 12 46  1  0  0  0
 12 47  1  0  0  0
 13 14  1  0  0  0
 13  6  1  0  0  0
 13 48  1  0  0  0
 14 15  1  0  0  0
 14 49  1  0  0  0
 14 50  1  0  0  0
 15 16  1  0  0  0
 15 51  1  0  0  0
 15 52  1  0  0  0
 16 17  1  0  0  0
 16 53  1  0  0  0
 17 18  1  0  0  0
 17 19  1  0  0  0
 17  2  1  0  0  0
 18 54  1  0  0  0
 19 20  1  0  0  0
 19 55  1  0  0  0
 19 56  1  0  0  0
 20 21  1  0  0  0
 20 57  1  0  0  0
 20 58  1  0  0  0
 21 22  1  0  0  0
 21 59  1  0  0  0
 22 28  2  0  0  0
 23 22  1  0  0  0
 23 24  2  0  0  0
 23 60  1  0  0  0
 24 25  1  0  0  0
 24 61  1  0  0  0
 25 27  1  0  0  0
 25 26  2  0  0  0
 28 27  1  0  0  0
 28 62  1  0  0  0
M  END
$$$$
