REMARK  12 active torsions:
REMARK  status: ('A' for Active; 'I' for Inactive)
REMARK    1  A    between atoms: P_1  and  O_3 
REMARK    2  A    between atoms: P_1  and  O_4 
REMARK    3  A    between atoms: P_1  and  O_8 
REMARK    4  A    between atoms: P_5  and  O_7 
REMARK    5  A    between atoms: P_5  and  O_8 
REMARK    6  A    between atoms: P_5  and  O_9 
REMARK    7  A    between atoms: O_9  and  C_10 
REMARK    8  A    between atoms: C_10  and  C_11 
REMARK    9  A    between atoms: C_13  and  O_14 
REMARK   10  A    between atoms: C_15  and  O_16 
REMARK   11  A    between atoms: C_17  and  N_18 
REMARK   12  A    between atoms: C_22  and  N_23 
ROOT
HETATM    1  C   UNL     1       2.976   3.967   1.567  1.00  0.00     0.180 C 
HETATM    2  O   UNL     1       1.542   4.031   1.757  1.00  0.00    -0.353 OA
HETATM    3  C   UNL     1       3.503   5.405   1.785  1.00  0.00     0.182 C 
HETATM    4  C   UNL     1       2.304   6.190   2.319  1.00  0.00     0.198 C 
HETATM    5  C   UNL     1       1.133   5.424   1.711  1.00  0.00     0.262 C 
ENDROOT
BRANCH   1   6
HETATM    6  C   UNL     1       3.625   2.931   2.523  1.00  0.00     0.215 C 
BRANCH   6   7
HETATM    7  O   UNL     1       3.186   1.568   2.327  1.00  0.00    -0.294 OA
BRANCH   7   8
HETATM    8  P   UNL     1       4.089   0.402   3.016  1.00  0.00     0.401 P 
HETATM    9  O   UNL     1       4.750   0.865   4.274  1.00  0.00    -0.631 OA
BRANCH   8  10
HETATM   10  O   UNL     1       5.143   0.020   1.878  1.00  0.00    -0.307 OA
HETATM   11  H   UNL     1       5.934  -0.403   2.258  1.00  0.00     0.222 HD
ENDBRANCH   8  10
BRANCH   8  12
HETATM   12  O   UNL     1       3.172  -0.938   3.207  1.00  0.00    -0.195 OA
BRANCH  12  13
HETATM   13  P   UNL     1       1.856  -0.314   4.139  1.00  0.00     0.399 P 
HETATM   14  O   UNL     1       0.861  -0.837   3.110  1.00  0.00    -0.631 OA
BRANCH  13  15
HETATM   15  O   UNL     1       2.040  -1.498   5.237  1.00  0.00    -0.307 OA
HETATM   16  H   UNL     1       1.432  -2.219   4.982  1.00  0.00     0.222 HD
ENDBRANCH  13  15
BRANCH  13  17
HETATM   17  O   UNL     1       0.539   0.310   5.072  1.00  0.00    -0.307 OA
HETATM   18  H   UNL     1       0.625   1.265   5.226  1.00  0.00     0.222 HD
ENDBRANCH  13  17
ENDBRANCH  12  13
ENDBRANCH   8  12
ENDBRANCH   7   8
ENDBRANCH   6   7
ENDBRANCH   1   6
BRANCH   3  19
HETATM   19  O   UNL     1       3.946   6.017   0.563  1.00  0.00    -0.390 OA
HETATM   20  H   UNL     1       3.387   5.728  -0.180  1.00  0.00     0.210 HD
ENDBRANCH   3  19
BRANCH   5  21
HETATM   21  N   UNL     1      -0.106   5.581   2.447  1.00  0.00    -0.294 N 
HETATM   22  C   UNL     1      -0.454   4.904   3.586  1.00  0.00     0.214 A 
HETATM   23  N   UNL     1      -1.622   5.281   4.055  1.00  0.00    -0.236 NA
HETATM   24  C   UNL     1      -2.061   6.239   3.163  1.00  0.00     0.144 A 
HETATM   25  C   UNL     1      -3.241   7.004   3.106  1.00  0.00     0.135 A 
HETATM   26  C   UNL     1      -1.135   6.433   2.145  1.00  0.00     0.166 A 
HETATM   27  N   UNL     1      -3.408   7.854   2.069  1.00  0.00    -0.228 NA
HETATM   28  C   UNL     1      -2.418   7.946   1.152  1.00  0.00     0.237 A 
HETATM   29  N   UNL     1      -1.247   7.273   1.103  1.00  0.00    -0.222 NA
BRANCH  25  30
HETATM   30  N   UNL     1      -4.248   6.909   4.056  1.00  0.00    -0.285 NA
HETATM   31  H   UNL     1      -4.227   6.041   4.582  1.00  0.00     0.125 HD
HETATM   32  H   UNL     1      -5.141   7.211   3.687  1.00  0.00     0.125 HD
ENDBRANCH  25  30
ENDBRANCH   5  21
BRANCH   4  33
HETATM   33  O   UNL     1       2.350   7.566   1.955  1.00  0.00    -0.388 OA
HETATM   34  H   UNL     1       3.009   7.658   1.238  1.00  0.00     0.210 HD
ENDBRANCH   4  33
TORSDOF 12
